tests/main/res/TestIIDM_hvdc_diagrams_flat_start.iidm
<?xml version="1.0" encoding="ISO-8859-1" standalone="no"?>
<network xmlns="http://www.itesla_project.eu/schema/iidm/1_0" xmlns:as="http://www.itesla_project.eu/schema/iidm/ext/active-season/1_0" xmlns:bbsp="http://www.itesla_project.eu/schema/iidm/ext/busbarsectionposition/1_0" xmlns:clps="http://www.itesla_project.eu/schema/iidm/ext/current-limits-per-season/1_0" xmlns:cp="http://www.itesla_project.eu/schema/iidm/ext/connectable_position/1_0" xmlns:gapc="http://www.itesla_project.eu/schema/iidm/ext/generator_active_power_control/1_0" xmlns:gec="http://www.itesla_project.eu/schema/iidm/ext/generator_entsoe_category/1_0" xmlns:gs="http://www.itesla_project.eu/schema/iidm/ext/generator_startup/1_0" xmlns:hapc="http://www.itesla_project.eu/schema/iidm/ext/hvdc_angle_droop_active_power_control/1_0" xmlns:hopr="http://www.itesla_project.eu/schema/iidm/ext/hvdc_operator_active_power_range/1_0" xmlns:ld="http://www.itesla_project.eu/schema/iidm/ext/load_detail/1_0" xmlns:sa="http://www.itesla_project.eu/schema/iidm/ext/standby_automaton/1_0" id="situ_12N" caseDate="2014-02-12T13:19:17+01:00" forecastDistance="0" sourceFormat="CIM1">
  <substation id="DOLONP6_S" name="DOLONP6" country="FR" tso="RTE">
    <voltageLevel id="NIREE6" name="NIREEP6" nominalV="225" lowVoltageLimit="220" highVoltageLimit="245" topologyKind="BUS_BREAKER">
      <busBreakerTopology>
        <bus id="NIREEP61"/>
      </busBreakerTopology>
      <load id="NIREEP6_NIREE1" name="NIREEP6_NIREE1" loadType="UNDEFINED" p0="184.61332003465" q0="17.041038967108069" bus="NIREEP61" connectableBus="NIREEP61"/>
      <load id="NIREEP6_NIREE4" name="NIREEP6_NIREE4" loadType="UNDEFINED" p0="0" q0="0" connectableBus="NIREEP61"/>
    </voltageLevel>
    <voltageLevel id="DOLONP6_S_VL6" name="DOLONP6" nominalV="225" lowVoltageLimit="220" highVoltageLimit="245" topologyKind="BUS_BREAKER">
      <busBreakerTopology>
        <bus id="DOLONP6_S_VL6_TN2"/>
        <bus id="DOLONP6_S_VL6_TN1"/>
        <switch id="DOLONP6_C21" kind="BREAKER" retained="true" open="false" bus1="DOLONP6_S_VL6_TN2" bus2="DOLONP6_S_VL6_TN1"/>
      </busBreakerTopology>
      <load id="DOLONP6_DOLON1" name="DOLONP6_DOLON1" loadType="UNDEFINED" p0="190.63861493814102" q0="18.171540752766465" bus="DOLONP6_S_VL6_TN1" connectableBus="DOLONP6_S_VL6_TN1"/>
      <load id="DOLONP6_DOLON4" name="DOLONP6_DOLON4" loadType="UNDEFINED" p0="0" q0="0" connectableBus="DOLONP6_S_VL6_TN1"/>
    </voltageLevel>
    <twoWindingsTransformer id="NIREEL61DOLON_ACLS" r="0.080000102519989014" x="8.3600072860717773" g="0" b="0" ratedU1="225" ratedU2="225" voltageLevelId1="DOLONP6_S_VL6" bus1="DOLONP6_S_VL6_TN1" connectableBus1="DOLONP6_S_VL6_TN1" voltageLevelId2="NIREE6" bus2="NIREEP61" connectableBus2="NIREEP61">
      <phaseTapChanger lowTapPosition="0" tapPosition="17" regulationMode="CURRENT_LIMITER" regulationValue="409.27999999999997" regulating="true">
        <terminalRef id="NIREEL61DOLON_ACLS" side="ONE"/>
        <step r="72.599555969238281" x="72.599563598632812" g="0" b="0" rho="1" alpha="-50"/>
        <step r="66.021034240722656" x="66.021034240722656" g="0" b="0" rho="1" alpha="-47.200000762939453"/>
        <step r="59.920902252197266" x="59.920902252197266" g="0" b="0" rho="1" alpha="-44.400001525878906"/>
        <step r="53.461677551269531" x="53.461669921875" g="0" b="0" rho="1" alpha="-41.5"/>
        <step r="48.318267822265625" x="48.318267822265625" g="0" b="0" rho="1" alpha="-38.599998474121094"/>
        <step r="42.338008880615234" x="42.3380126953125" g="0" b="0" rho="1" alpha="-35.599998474121094"/>
        <step r="37.433792114257812" x="37.433795928955078" g="0" b="0" rho="1" alpha="-32.5"/>
        <step r="32.649471282958984" x="32.649467468261719" g="0" b="0" rho="1" alpha="-29.399999618530273"/>
        <step r="29.30024528503418" x="29.300249099731445" g="0" b="0" rho="1" alpha="-26.299999237060547"/>
        <step r="24.874410629272461" x="24.874418258666992" g="0" b="0" rho="1" alpha="-23.100000381469727"/>
        <step r="20.6883544921875" x="20.688360214233398" g="0" b="0" rho="1" alpha="-19.799999237060547"/>
        <step r="16.980066299438477" x="16.980066299438477" g="0" b="0" rho="1" alpha="-16.600000381469727"/>
        <step r="13.272382736206055" x="13.272385597229004" g="0" b="0" rho="1" alpha="-13.300000190734863"/>
        <step r="10.760626792907715" x="10.76063060760498" g="0" b="0" rho="1" alpha="-10"/>
        <step r="8.4874477386474609" x="8.4874544143676758" g="0" b="0" rho="1" alpha="-6.6999998092651367"/>
        <step r="7.5307116508483887" x="7.5307121276855469" g="0" b="0" rho="1" alpha="-3.2999999523162842"/>
        <step r="6.9330453872680664" x="6.933046817779541" g="0" b="0" rho="1" alpha="0"/>
        <step r="7.8897914886474609" x="7.8897995948791504" g="0" b="0" rho="1" alpha="3.2999999523162842"/>
        <step r="9.2056188583374023" x="9.2056188583374023" g="0" b="0" rho="1" alpha="6.6999998092651367"/>
        <step r="11.119101524353027" x="11.119102478027344" g="0" b="0" rho="1" alpha="10"/>
        <step r="13.391666412353516" x="13.391663551330566" g="0" b="0" rho="1" alpha="13.300000190734863"/>
        <step r="16.860780715942383" x="16.860788345336914" g="0" b="0" rho="1" alpha="16.600000381469727"/>
        <step r="19.731012344360352" x="19.731014251708984" g="0" b="0" rho="1" alpha="19.799999237060547"/>
        <step r="24.874410629272461" x="24.874418258666992" g="0" b="0" rho="1" alpha="23.100000381469727"/>
        <step r="29.419538497924805" x="29.419538497924805" g="0" b="0" rho="1" alpha="26.299999237060547"/>
        <step r="34.562957763671875" x="34.562950134277344" g="0" b="0" rho="1" alpha="29.399999618530273"/>
        <step r="38.868904113769531" x="38.868900299072266" g="0" b="0" rho="1" alpha="32.5"/>
        <step r="44.012310028076172" x="44.012306213378906" g="0" b="0" rho="1" alpha="35.599998474121094"/>
        <step r="48.318267822265625" x="48.318267822265625" g="0" b="0" rho="1" alpha="38.599998474121094"/>
        <step r="54.896797180175781" x="54.896800994873047" g="0" b="0" rho="1" alpha="41.5"/>
        <step r="60.279369354248047" x="60.279376983642578" g="0" b="0" rho="1" alpha="44.400001525878906"/>
        <step r="67.456169128417969" x="67.456169128417969" g="0" b="0" rho="1" alpha="47.200000762939453"/>
        <step r="73.197837829589844" x="73.197845458984375" g="0" b="0" rho="1" alpha="50"/>
      </phaseTapChanger>
    </twoWindingsTransformer>
  </substation>
  <substation id="ULYSSP6_S" name="ULYSSP6" country="FR" tso="RTE">
    <voltageLevel id="ULYSSP6_S_VL6" name="ULYSSP6" nominalV="225" lowVoltageLimit="220" highVoltageLimit="245" topologyKind="BUS_BREAKER">
      <busBreakerTopology>
        <bus id="ULYSSP6_S_VL6_TN4"/>
        <bus id="ULYSSP6_S_VL6_TN3"/>
        <bus id="ULYSSP6_S_VL6_TN2"/>
        <bus id="ULYSSP6_S_VL6_TN1"/>
        <switch id="ULYSSP6_SW_ULYSS___6TRO_2AB__DJ" kind="BREAKER" retained="true" open="false" bus1="ULYSSP6_S_VL6_TN4" bus2="ULYSSP6_S_VL6_TN2"/>
        <switch id="ULYSSP6_SW_ULYSS___6TRO_1AB__DJ" kind="BREAKER" retained="true" open="false" bus1="ULYSSP6_S_VL6_TN2" bus2="ULYSSP6_S_VL6_TN1"/>
        <switch id="ULYSSP6_SW_ULYSS___6COUPL_B__DJ" kind="BREAKER" retained="true" open="false" bus1="ULYSSP6_S_VL6_TN4" bus2="ULYSSP6_S_VL6_TN2"/>
        <switch id="ULYSSP6_SW_ULYSS___6COUPL_A__DJ" kind="BREAKER" retained="true" open="false" bus1="ULYSSP6_S_VL6_TN3" bus2="ULYSSP6_S_VL6_TN1"/>
      </busBreakerTopology>
      <load id="ULYSSP6_ULYSS1" name="ULYSSP6_ULYSS1" loadType="UNDEFINED" p0="101.34473795564341" q0="10.270755911298043" bus="ULYSSP6_S_VL6_TN1" connectableBus="ULYSSP6_S_VL6_TN1"/>
      <load id="ULYSSP6_ULYSS4" name="ULYSSP6_ULYSS4" loadType="UNDEFINED" p0="0" q0="0" connectableBus="ULYSSP6_S_VL6_TN1"/>
      <shunt id="ULYSSP6_COND.11" name="ULYSSP6_COND.11" bPerSection="0.0015802469570189714" maximumSectionCount="1" currentSectionCount="1" bus="ULYSSP6_S_VL6_TN1" connectableBus="ULYSSP6_S_VL6_TN1"/>
    </voltageLevel>
  </substation>
  <substation id="AGAMEP6_S" name="AGAMEP6" country="FR" tso="RTE">
    <voltageLevel id="AGAMEP6_S_VL6" name="AGAMEP6" nominalV="225" lowVoltageLimit="220" highVoltageLimit="245" topologyKind="BUS_BREAKER">
      <busBreakerTopology>
        <bus id="AGAMEP6_S_VL6_TN4"/>
        <bus id="AGAMEP6_S_VL6_TN3"/>
        <bus id="AGAMEP6_S_VL6_TN2"/>
        <bus id="AGAMEP6_S_VL6_TN1"/>
        <switch id="AGAMEP6_SW_AGAME___6TRO_2AB__DJ" kind="BREAKER" retained="true" open="false" bus1="AGAMEP6_S_VL6_TN4" bus2="AGAMEP6_S_VL6_TN2"/>
        <switch id="AGAMEP6_SW_AGAME___6TRO_1AB__DJ" kind="BREAKER" retained="true" open="false" bus1="AGAMEP6_S_VL6_TN2" bus2="AGAMEP6_S_VL6_TN1"/>
        <switch id="AGAMEP6_SW_AGAME___6COUPL_B__DJ" kind="BREAKER" retained="true" open="false" bus1="AGAMEP6_S_VL6_TN4" bus2="AGAMEP6_S_VL6_TN2"/>
        <switch id="AGAMEP6_SW_AGAME___6COUPL_A__DJ" kind="BREAKER" retained="true" open="false" bus1="AGAMEP6_S_VL6_TN3" bus2="AGAMEP6_S_VL6_TN1"/>
      </busBreakerTopology>
      <load id="AGAMEP6_AGAME1" name="AGAMEP6_AGAME1" loadType="UNDEFINED" p0="200.91743567029621" q0="20.183907978163784" bus="AGAMEP6_S_VL6_TN1" connectableBus="AGAMEP6_S_VL6_TN1"/>
      <load id="AGAMEP6_AGAME4" name="AGAMEP6_AGAME4" loadType="UNDEFINED" p0="0" q0="0" connectableBus="AGAMEP6_S_VL6_TN1"/>
    </voltageLevel>
  </substation>
  <substation id="PRIAMP6_S" name="PRIAMP6" country="FR" tso="RTE">
    <voltageLevel id="PRIAMP6_S_VL6" name="PRIAMP7" nominalV="225" lowVoltageLimit="220" highVoltageLimit="245" topologyKind="BUS_BREAKER">
      <busBreakerTopology>
        <bus id="PRIAMP6_S_VL6_TN2"/>
        <bus id="PRIAMP6_S_VL6_TN1"/>
        <switch id="PRIAMP6_SW_Disj_Couplage_1_2" kind="BREAKER" retained="true" open="false" bus1="PRIAMP6_S_VL6_TN2" bus2="PRIAMP6_S_VL6_TN1"/>
      </busBreakerTopology>
      <load id="PRIAMP6_PRIAM1" name="PRIAMP6_PRIAM1" loadType="UNDEFINED" p0="221.65287835010776" q0="20.30165226482961" bus="PRIAMP6_S_VL6_TN1" connectableBus="PRIAMP6_S_VL6_TN1"/>
      <load id="PRIAMP6_PRIAM4" name="PRIAMP6_PRIAM4" loadType="UNDEFINED" p0="0" q0="0" connectableBus="PRIAMP6_S_VL6_TN1"/>
      <shunt id="PRIAMP6_COND.11" name="PRIAMP6_COND.11" bPerSection="0.0015802469570189714" maximumSectionCount="1" currentSectionCount="1" bus="PRIAMP6_S_VL6_TN1" connectableBus="PRIAMP6_S_VL6_TN1"/>
    </voltageLevel>
  </substation>
  <substation id="ACHILP6_S" name="ACHILP6" country="FR" tso="RTE">
    <voltageLevel id="ACHILP6_S_VL6" name="ACHILP6" nominalV="225" lowVoltageLimit="220" highVoltageLimit="245" topologyKind="BUS_BREAKER">
      <busBreakerTopology>
        <bus id="ACHILP6_S_VL6_TN3"/>
        <bus id="ACHILP6_S_VL6_TN2"/>
        <bus id="ACHILP6_S_VL6_TN1"/>
        <switch id="ACHILP6_C31" kind="BREAKER" retained="true" open="false" bus1="ACHILP6_S_VL6_TN3" bus2="ACHILP6_S_VL6_TN1"/>
        <switch id="ACHILP6_C21" kind="BREAKER" retained="true" open="false" bus1="ACHILP6_S_VL6_TN2" bus2="ACHILP6_S_VL6_TN1"/>
      </busBreakerTopology>
      <load id="ACHILP6_ACHIL5" name="ACHILP6_ACHIL5" loadType="UNDEFINED" p0="200.00777666141016" q0="20.001555362520222" bus="ACHILP6_S_VL6_TN3" connectableBus="ACHILP6_S_VL6_TN3"/>
      <load id="ACHILP6_ACHIL9" name="ACHILP6_ACHIL9" loadType="UNDEFINED" p0="0" q0="0" connectableBus="ACHILP6_S_VL6_TN1"/>
    </voltageLevel>
  </substation>
  <substation id="MYDONP6_S" name="MYDONP6" country="FR" tso="RTE">
    <voltageLevel id="PARIS" name="PARISP6" nominalV="225" lowVoltageLimit="220" highVoltageLimit="245" topologyKind="BUS_BREAKER">
      <busBreakerTopology>
        <bus id="PARISP61"/>
      </busBreakerTopology>
    </voltageLevel>
    <voltageLevel id="MYDONP6_S_VL6" name="MYDONP6" nominalV="225" lowVoltageLimit="220" highVoltageLimit="245" topologyKind="BUS_BREAKER">
      <busBreakerTopology>
        <bus id="MYDONP6_S_VL6_TN2"/>
        <bus id="MYDONP6_S_VL6_TN1"/>
        <switch id="MYDONP6_C21" kind="BREAKER" retained="true" open="false" bus1="MYDONP6_S_VL6_TN2" bus2="MYDONP6_S_VL6_TN1"/>
      </busBreakerTopology>
      <load id="MYDONP6_MYDON62" name="MYDONP6_MYDON62" loadType="UNDEFINED" p0="200.65073772401115" q0="20.130359274594966" bus="MYDONP6_S_VL6_TN2" connectableBus="MYDONP6_S_VL6_TN2"/>
      <load id="MYDONP6_MYDON63" name="MYDONP6_MYDON63" loadType="UNDEFINED" p0="0" q0="0" connectableBus="MYDONP6_S_VL6_TN2"/>
    </voltageLevel>
    <twoWindingsTransformer id="MYDONL61PARIS_ACLS" r="2.0000002384185791" x="10.600000381469727" g="0" b="3.2000003557186574e-05" ratedU1="225" ratedU2="225" voltageLevelId1="PARIS" bus1="PARISP61" connectableBus1="PARISP61" voltageLevelId2="MYDONP6_S_VL6" bus2="MYDONP6_S_VL6_TN1" connectableBus2="MYDONP6_S_VL6_TN1">
      <phaseTapChanger lowTapPosition="0" tapPosition="17" regulationMode="CURRENT_LIMITER" regulationValue="409.27999999999997" regulating="true">
        <terminalRef id="MYDONL61PARIS_ACLS" side="ONE"/>
        <step r="92.824150085449219" x="92.824142456054688" g="0" b="0" rho="1" alpha="-42.799999237060547"/>
        <step r="81.69970703125" x="81.699714660644531" g="0" b="0" rho="1" alpha="-40.180000305175781"/>
        <step r="70.575233459472656" x="70.575225830078125" g="0" b="0" rho="1" alpha="-37.540000915527344"/>
        <step r="60.377796173095703" x="60.377780914306641" g="0" b="0" rho="1" alpha="-34.900001525878906"/>
        <step r="51.107398986816406" x="51.107387542724609" g="0" b="0" rho="1" alpha="-32.259998321533203"/>
        <step r="42.7640380859375" x="42.764041900634766" g="0" b="0" rho="1" alpha="-29.600000381469727"/>
        <step r="35.347732543945312" x="35.347740173339844" g="0" b="0" rho="1" alpha="-26.940000534057617"/>
        <step r="27.931425094604492" x="27.931427001953125" g="0" b="0" rho="1" alpha="-24.260000228881836"/>
        <step r="21.442148208618164" x="21.442150115966797" g="0" b="0" rho="1" alpha="-21.579999923706055"/>
        <step r="15.879915237426758" x="15.879919052124023" g="0" b="0" rho="1" alpha="-18.899999618530273"/>
        <step r="11.244712829589844" x="11.244710922241211" g="0" b="0" rho="1" alpha="-16.219999313354492"/>
        <step r="7.5365533828735352" x="7.536555290222168" g="0" b="0" rho="1" alpha="-13.520000457763672"/>
        <step r="3.8283939361572266" x="3.82839035987854" g="0" b="0" rho="1" alpha="-10.819999694824219"/>
        <step r="1.0472773313522339" x="1.0472782850265503" g="0" b="0" rho="1" alpha="-8.119999885559082"/>
        <step r="-0.80679643154144287" x="-0.80679941177368164" g="0" b="0" rho="1" alpha="-5.4200000762939453"/>
        <step r="-1.7338333129882812" x="-1.7338337898254395" g="0" b="0" rho="1" alpha="-2.7000000476837158"/>
        <step r="-1.7338333129882812" x="-1.7338337898254395" g="0" b="0" rho="1" alpha="0"/>
        <step r="-1.7338333129882812" x="-1.7338337898254395" g="0" b="0" rho="1" alpha="2.7000000476837158"/>
        <step r="-0.80679643154144287" x="-0.80679941177368164" g="0" b="0" rho="1" alpha="5.4200000762939453"/>
        <step r="1.0472773313522339" x="1.0472782850265503" g="0" b="0" rho="1" alpha="8.119999885559082"/>
        <step r="3.8283939361572266" x="3.82839035987854" g="0" b="0" rho="1" alpha="10.819999694824219"/>
        <step r="7.5365533828735352" x="7.536555290222168" g="0" b="0" rho="1" alpha="13.520000457763672"/>
        <step r="11.244712829589844" x="11.244710922241211" g="0" b="0" rho="1" alpha="16.219999313354492"/>
        <step r="15.879915237426758" x="15.879919052124023" g="0" b="0" rho="1" alpha="18.899999618530273"/>
        <step r="21.442148208618164" x="21.442150115966797" g="0" b="0" rho="1" alpha="21.579999923706055"/>
        <step r="27.931425094604492" x="27.931427001953125" g="0" b="0" rho="1" alpha="24.260000228881836"/>
        <step r="35.347732543945312" x="35.347740173339844" g="0" b="0" rho="1" alpha="26.940000534057617"/>
        <step r="42.7640380859375" x="42.764041900634766" g="0" b="0" rho="1" alpha="29.600000381469727"/>
        <step r="51.107398986816406" x="51.107387542724609" g="0" b="0" rho="1" alpha="32.259998321533203"/>
        <step r="60.377796173095703" x="60.377780914306641" g="0" b="0" rho="1" alpha="34.900001525878906"/>
        <step r="70.575233459472656" x="70.575225830078125" g="0" b="0" rho="1" alpha="37.540000915527344"/>
        <step r="81.69970703125" x="81.699714660644531" g="0" b="0" rho="1" alpha="40.180000305175781"/>
        <step r="92.824150085449219" x="92.824142456054688" g="0" b="0" rho="1" alpha="42.799999237060547"/>
      </phaseTapChanger>
    </twoWindingsTransformer>
  </substation>
  <substation id="CIRCEP6_S" name="CIRCEP6" country="FR" tso="RTE">
    <voltageLevel id="CIRCEP6_S_VL6" name="CIRCEP6" nominalV="225" lowVoltageLimit="220" highVoltageLimit="245" topologyKind="BUS_BREAKER">
      <busBreakerTopology>
        <bus id="CIRCEP6_S_VL6_TN3"/>
        <bus id="CIRCEP6_S_VL6_TN2"/>
        <bus id="CIRCEP6_S_VL6_TN1"/>
        <switch id="CIRCEP6_C32" kind="BREAKER" retained="true" open="false" bus1="CIRCEP6_S_VL6_TN3" bus2="CIRCEP6_S_VL6_TN2"/>
        <switch id="CIRCEP6_C21" kind="BREAKER" retained="true" open="false" bus1="CIRCEP6_S_VL6_TN2" bus2="CIRCEP6_S_VL6_TN1"/>
        <switch id="CIRCEP6_C31" kind="BREAKER" retained="true" open="false" bus1="CIRCEP6_S_VL6_TN3" bus2="CIRCEP6_S_VL6_TN1"/>
      </busBreakerTopology>
      <load id="CIRCEP6_CIRCE5" name="CIRCEP6_CIRCE5" loadType="UNDEFINED" p0="202.15805678670534" q0="20.433939961888399" bus="CIRCEP6_S_VL6_TN1" connectableBus="CIRCEP6_S_VL6_TN1"/>
      <load id="CIRCEP6_CIRCE9" name="CIRCEP6_CIRCE9" loadType="UNDEFINED" p0="0" q0="0" connectableBus="CIRCEP6_S_VL6_TN1"/>
      <shunt id="CIRCEP6_COND.11" name="CIRCEP6_COND.11" bPerSection="0.0015802469570189714" maximumSectionCount="1" currentSectionCount="1" bus="CIRCEP6_S_VL6_TN1" connectableBus="CIRCEP6_S_VL6_TN1"/>
    </voltageLevel>
  </substation>
  <substation id="HELENP6_S" name="HELENP6" country="FR" tso="RTE">
    <voltageLevel id="HELENP6_S_VL6" name="HELENP6" nominalV="225" lowVoltageLimit="220" highVoltageLimit="245" topologyKind="BUS_BREAKER">
      <busBreakerTopology>
        <bus id="HELENP6_S_VL6_TN2"/>
        <bus id="HELENP6_S_VL6_TN1"/>
        <switch id="HELENP6_SW_Disj_Couplage_1_2" kind="BREAKER" retained="true" open="false" bus1="HELENP6_S_VL6_TN2" bus2="HELENP6_S_VL6_TN1"/>
      </busBreakerTopology>
      <load id="HELENP6_HELEN5" name="HELENP6_HELEN5" loadType="UNDEFINED" p0="202.15803731783981" q0="20.433936026100533" bus="HELENP6_S_VL6_TN1" connectableBus="HELENP6_S_VL6_TN1"/>
      <shunt id="HELENP6_COND.11" name="HELENP6_COND.11" bPerSection="0.0015802469570189714" maximumSectionCount="1" currentSectionCount="1" bus="HELENP6_S_VL6_TN1" connectableBus="HELENP6_S_VL6_TN1"/>
    </voltageLevel>
  </substation>
  <substation id="ATHENP7_S" name="ATHENP7" country="FR" tso="RTE">
    <voltageLevel id="ATHENP6_S_VL6" nominalV="225" lowVoltageLimit="220" highVoltageLimit="245" topologyKind="BUS_BREAKER">
      <busBreakerTopology>
        <bus id="ATHENP6_S_VL6_TN1"/>
      </busBreakerTopology>
    </voltageLevel>
    <voltageLevel id="ATHENP7_S_VL7" name="ATHENP7" nominalV="380" lowVoltageLimit="390" highVoltageLimit="410" topologyKind="BUS_BREAKER">
      <busBreakerTopology>
        <bus id="ATHENP7_S_VL7_TN1"/>
      </busBreakerTopology>
      <generator id="ATHEN7ATHEN1_NGU_SM" name="ATHEN7ATHEN1" energySource="NUCLEAR" minP="398" maxP="1498" voltageRegulatorOn="true" targetP="762.85800067289142" targetQ="129.45613680827205" targetV="390.75128980300326" bus="ATHENP7_S_VL7_TN1" connectableBus="ATHENP7_S_VL7_TN1">
        <reactiveCapabilityCurve>
          <point p="398" minQ="-5" maxQ="360"/>
          <point p="1498" minQ="-220" maxQ="200"/>
        </reactiveCapabilityCurve>
      </generator>
      <load id="ATHEN1" name="ATHEN1" loadType="UNDEFINED" p0="0" q0="0" bus="ATHENP7_S_VL7_TN1" connectableBus="ATHENP7_S_VL7_TN1"/>
    </voltageLevel>
    <twoWindingsTransformer id="ATHENY761" r="0.4699999988079071" x="39.699996948242188" g="0" b="0" ratedU1="225" ratedU2="380" voltageLevelId1="ATHENP6_S_VL6" bus1="ATHENP6_S_VL6_TN1" connectableBus1="ATHENP6_S_VL6_TN1" voltageLevelId2="ATHENP7_S_VL7" bus2="ATHENP7_S_VL7_TN1" connectableBus2="ATHENP7_S_VL7_TN1">
      <ratioTapChanger lowTapPosition="0" tapPosition="0" loadTapChangingCapabilities="false" targetV="238.43904113769531">
        <step r="0" x="0" g="0" b="0" rho="1"/>
        <step r="0" x="0" g="0" b="0" rho="0.95599997043609619"/>
        <step r="0" x="0" g="0" b="0" rho="0.91299998760223389"/>
      </ratioTapChanger>
    </twoWindingsTransformer>
  </substation>
  <substation id="HADESP7_S" name="HADESP7" country="FR" tso="RTE">
    <voltageLevel id="HADESP6_S_VL6" nominalV="225" lowVoltageLimit="220" highVoltageLimit="245" topologyKind="BUS_BREAKER">
      <busBreakerTopology>
        <bus id="HADESP6_S_VL6_TN1"/>
      </busBreakerTopology>
    </voltageLevel>
    <voltageLevel id="HADESP7_S_VL7" name="HADESP7" nominalV="380" lowVoltageLimit="390" highVoltageLimit="410" topologyKind="BUS_BREAKER">
      <busBreakerTopology>
        <bus id="HADESP7_S_VL7_TN1"/>
        <bus id="HADESP7_S_VL7_TN2"/>
        <switch id="HADESP7_SW_HADES___7COUPL_1__DJ" kind="BREAKER" retained="true" open="false" bus1="HADESP7_S_VL7_TN1" bus2="HADESP7_S_VL7_TN2"/>
      </busBreakerTopology>
      <generator id="HADES7HADES1_NGU_SM" name="HADES7HADES1" energySource="NUCLEAR" minP="0" maxP="917" voltageRegulatorOn="true" targetP="527.77248202197438" targetQ="100.23241552420848" targetV="391.31585308922013" bus="HADESP7_S_VL7_TN1" connectableBus="HADESP7_S_VL7_TN1">
        <reactiveCapabilityCurve>
          <point p="0" minQ="-230" maxQ="320"/>
          <point p="917" minQ="-300" maxQ="230"/>
        </reactiveCapabilityCurve>
      </generator>
      <generator id="HADES7HADES2_NGU_SM" name="HADES7HADES2" energySource="NUCLEAR" minP="0" maxP="917" voltageRegulatorOn="true" targetP="527.77248202197438" targetQ="100.23239904279535" targetV="391.31581592763018" bus="HADESP7_S_VL7_TN1" connectableBus="HADESP7_S_VL7_TN1">
        <reactiveCapabilityCurve>
          <point p="0" minQ="-230" maxQ="320"/>
          <point p="917" minQ="-300" maxQ="230"/>
        </reactiveCapabilityCurve>
      </generator>
      <load id="HADES1" name="HADES1" loadType="UNDEFINED" p0="0" q0="0" bus="HADESP7_S_VL7_TN1" connectableBus="HADESP7_S_VL7_TN1"/>
    </voltageLevel>
    <twoWindingsTransformer id="HADESY761" r="0.4699999988079071" x="39.699996948242188" g="0" b="0" ratedU1="225" ratedU2="380" voltageLevelId1="HADESP6_S_VL6" bus1="HADESP6_S_VL6_TN1" connectableBus1="HADESP6_S_VL6_TN1" voltageLevelId2="HADESP7_S_VL7" bus2="HADESP7_S_VL7_TN1" connectableBus2="HADESP7_S_VL7_TN1">
      <ratioTapChanger lowTapPosition="0" tapPosition="0" loadTapChangingCapabilities="false" targetV="238.43904113769531">
        <step r="0" x="0" g="0" b="0" rho="1"/>
        <step r="0" x="0" g="0" b="0" rho="0.95599997043609619"/>
        <step r="0" x="0" g="0" b="0" rho="0.91299998760223389"/>
      </ratioTapChanger>
    </twoWindingsTransformer>
  </substation>
  <substation id="AJAXP7_S" name="AJAXP7" country="FR" tso="RTE">
    <voltageLevel id="AJAXP7_S_VL7" name="AJAXP7" nominalV="380" lowVoltageLimit="390" highVoltageLimit="410" topologyKind="BUS_BREAKER">
      <busBreakerTopology>
        <bus id="AJAXP7_S_VL7_TN1"/>
      </busBreakerTopology>
      <load id="AJAXP7_AJAX5" name="AJAXP7_AJAX5" loadType="UNDEFINED" p0="0" q0="0" bus="AJAXP7_S_VL7_TN1" connectableBus="AJAXP7_S_VL7_TN1"/>
      <vscConverterStation id="AJAXP7_AJAX_TER_1" name="AJAX_TER_1" voltageRegulatorOn="true" lossFactor="1" voltageSetpoint="409.73005742585076" reactivePowerSetpoint="170" bus="AJAXP7_S_VL7_TN1" connectableBus="AJAXP7_S_VL7_TN1">
        <reactiveCapabilityCurve>
          <point p="-1011" minQ="-300" maxQ="300"/>
          <point p="0" minQ="-600" maxQ="400"/>
          <point p="1011" minQ="-300" maxQ="300"/>
        </reactiveCapabilityCurve>
      </vscConverterStation>
      <vscConverterStation id="AJAXP7_AJAX_TER_2" name="AJAX_TER_2" voltageRegulatorOn="false" lossFactor="1" voltageSetpoint="409.73005742585076" reactivePowerSetpoint="170" bus="AJAXP7_S_VL7_TN1" connectableBus="AJAXP7_S_VL7_TN1">
        <reactiveCapabilityCurve>
          <point p="-1011" minQ="-300" maxQ="300"/>
          <point p="0" minQ="-600" maxQ="400"/>
          <point p="1011" minQ="-300" maxQ="300"/>
        </reactiveCapabilityCurve>
      </vscConverterStation>
    </voltageLevel>
  </substation>
  <substation id="HERAP7_S" name="HERAP7" country="FR" tso="RTE">
    <voltageLevel id="HERAP7_S_VL7" name="HERAP7" nominalV="380" lowVoltageLimit="390" highVoltageLimit="410" topologyKind="BUS_BREAKER">
      <busBreakerTopology>
        <bus id="HERAP7_S_VL7_TN1"/>
      </busBreakerTopology>
      <load id="HERAP7_HERA5" name="HERAP7_HERA5" loadType="UNDEFINED" p0="0" q0="0" bus="HERAP7_S_VL7_TN1" connectableBus="HERAP7_S_VL7_TN1"/>
      <vscConverterStation id="HERAP7_HERA_TER_1" name="HERA_TER_1" voltageRegulatorOn="true" lossFactor="1" voltageSetpoint="403.86336477401227" reactivePowerSetpoint="270" bus="HERAP7_S_VL7_TN1" connectableBus="HERAP7_S_VL7_TN1">
        <reactiveCapabilityCurve>
          <point p="-1011" minQ="-300" maxQ="300"/>
          <point p="0" minQ="-600" maxQ="400"/>
          <point p="1011" minQ="-300" maxQ="300"/>
        </reactiveCapabilityCurve>
      </vscConverterStation>
      <vscConverterStation id="HERAP7_HERA_TER_2" name="HERA_TER_2" voltageRegulatorOn="true" lossFactor="1" voltageSetpoint="403.86336477401227" reactivePowerSetpoint="270" bus="HERAP7_S_VL7_TN1" connectableBus="HERAP7_S_VL7_TN1">
        <reactiveCapabilityCurve>
          <point p="-1011" minQ="-300" maxQ="300"/>
          <point p="0" minQ="-600" maxQ="400"/>
          <point p="1011" minQ="-300" maxQ="300"/>
        </reactiveCapabilityCurve>
      </vscConverterStation>
    </voltageLevel>
  </substation>
  <line id="AJAXL71HADES_ACLS" r="1.9429999589920044" x="25.186002731323242" g1="0" b1="0.00011981700663454831" g2="0" b2="0.00011981700663454831" voltageLevelId1="HADESP7_S_VL7" bus1="HADESP7_S_VL7_TN1" connectableBus1="HADESP7_S_VL7_TN1" voltageLevelId2="AJAXP7_S_VL7" bus2="AJAXP7_S_VL7_TN1" connectableBus2="AJAXP7_S_VL7_TN1">
    <currentLimits1 permanentLimit="2822"/>
    <currentLimits2 permanentLimit="2822">
      <temporaryLimit name="IT20" acceptableDuration="1200" value="3682"/>
      <temporaryLimit name="IT10" acceptableDuration="600" value="4258.00048828125"/>
      <temporaryLimit name="IT1" acceptableDuration="60"/>
    </currentLimits2>
  </line>
  <line id="HERAL71ATHEN_ACLS" r="1.9429999589920044" x="25.186002731323242" g1="0" b1="0.00011981700663454831" g2="0" b2="0.00011981700663454831" voltageLevelId1="ATHENP7_S_VL7" bus1="ATHENP7_S_VL7_TN1" connectableBus1="ATHENP7_S_VL7_TN1" voltageLevelId2="HERAP7_S_VL7" bus2="HERAP7_S_VL7_TN1" connectableBus2="HERAP7_S_VL7_TN1">
    <currentLimits1 permanentLimit="2822"/>
    <currentLimits2 permanentLimit="2822">
      <temporaryLimit name="IT20" acceptableDuration="1200" value="3682"/>
      <temporaryLimit name="IT10" acceptableDuration="600" value="4258.00048828125"/>
      <temporaryLimit name="IT1" acceptableDuration="60"/>
    </currentLimits2>
  </line>
  <line id="HADESL61CIRCE_ACLS" name="HADESL61CIRCE" r="4.559999942779541" x="33.779998779296875" g1="0" b1="0.0001177340091089718" g2="0" b2="0.00011775099847000092" voltageLevelId1="CIRCEP6_S_VL6" bus1="CIRCEP6_S_VL6_TN1" connectableBus1="CIRCEP6_S_VL6_TN1" voltageLevelId2="HADESP6_S_VL6" bus2="HADESP6_S_VL6_TN1" connectableBus2="HADESP6_S_VL6_TN1">
    <currentLimits1 permanentLimit="1890"/>
    <currentLimits2 permanentLimit="1890">
      <temporaryLimit name="IT20" acceptableDuration="1200" value="2171"/>
      <temporaryLimit name="IT10" acceptableDuration="600" value="2345"/>
      <temporaryLimit name="IT1" acceptableDuration="60"/>
    </currentLimits2>
  </line>
  <line id="HADESL62CIRCE_ACLS" name="CIRCEL61NIREE" r="4.559999942779541" x="33.779998779296875" g1="0" b1="0.0001177340091089718" g2="0" b2="0.00011775099847000092" voltageLevelId1="CIRCEP6_S_VL6" bus1="CIRCEP6_S_VL6_TN1" connectableBus1="CIRCEP6_S_VL6_TN1" voltageLevelId2="HADESP6_S_VL6" bus2="HADESP6_S_VL6_TN1" connectableBus2="HADESP6_S_VL6_TN1">
    <currentLimits1 permanentLimit="1890"/>
    <currentLimits2 permanentLimit="1890">
      <temporaryLimit name="IT20" acceptableDuration="1200" value="2171"/>
      <temporaryLimit name="IT10" acceptableDuration="600" value="2345"/>
      <temporaryLimit name="IT1" acceptableDuration="60"/>
    </currentLimits2>
  </line>
  <line id="CIRCEL61HELEN_ACLS" name="CIRCEL61HELEN" r="4.559999942779541" x="33.779998779296875" g1="0" b1="0.0001177340091089718" g2="0" b2="0.00011775099847000092" voltageLevelId1="HELENP6_S_VL6" bus1="HELENP6_S_VL6_TN1" connectableBus1="HELENP6_S_VL6_TN1" voltageLevelId2="CIRCEP6_S_VL6" bus2="CIRCEP6_S_VL6_TN1" connectableBus2="CIRCEP6_S_VL6_TN1">
    <currentLimits1 permanentLimit="1890"/>
    <currentLimits2 permanentLimit="1890">
      <temporaryLimit name="IT20" acceptableDuration="1200" value="2171"/>
      <temporaryLimit name="IT10" acceptableDuration="600" value="2345"/>
      <temporaryLimit name="IT1" acceptableDuration="60"/>
    </currentLimits2>
  </line>
  <line id="MYDONL61HELEN_ACLS" name="MYDONL61HELEN" r="4.559999942779541" x="33.779998779296875" g1="0" b1="0.0001177340091089718" g2="0" b2="0.00011775099847000092" voltageLevelId1="HELENP6_S_VL6" bus1="HELENP6_S_VL6_TN1" connectableBus1="HELENP6_S_VL6_TN1" voltageLevelId2="MYDONP6_S_VL6" bus2="MYDONP6_S_VL6_TN1" connectableBus2="MYDONP6_S_VL6_TN1">
    <currentLimits1 permanentLimit="1890"/>
    <currentLimits2 permanentLimit="1890">
      <temporaryLimit name="IT20" acceptableDuration="1200" value="2171"/>
      <temporaryLimit name="IT10" acceptableDuration="600" value="2345"/>
      <temporaryLimit name="IT1" acceptableDuration="60"/>
    </currentLimits2>
  </line>
  <line id="MYDONL62HELEN_ACLS" name="MYDONL62HELEN" r="4.559999942779541" x="33.779998779296875" g1="0" b1="0.0001177340091089718" g2="0" b2="0.00011775099847000092" voltageLevelId1="HELENP6_S_VL6" bus1="HELENP6_S_VL6_TN2" connectableBus1="HELENP6_S_VL6_TN2" voltageLevelId2="MYDONP6_S_VL6" bus2="MYDONP6_S_VL6_TN2" connectableBus2="MYDONP6_S_VL6_TN2">
    <currentLimits1 permanentLimit="1890"/>
    <currentLimits2 permanentLimit="1890">
      <temporaryLimit name="IT20" acceptableDuration="1200" value="2171"/>
      <temporaryLimit name="IT10" acceptableDuration="600" value="2345"/>
      <temporaryLimit name="IT1" acceptableDuration="60"/>
    </currentLimits2>
  </line>
  <line id="ACHILL61PARIS_ACLS" name="ACHILL61PRIAM" r="4.559999942779541" x="33.779998779296875" g1="0" b1="0.0001177340091089718" g2="0" b2="0.00011775099847000092" voltageLevelId1="PARIS" bus1="PARISP61" connectableBus1="PARISP61" voltageLevelId2="ACHILP6_S_VL6" bus2="ACHILP6_S_VL6_TN1" connectableBus2="ACHILP6_S_VL6_TN1">
    <currentLimits1 permanentLimit="1890"/>
    <currentLimits2 permanentLimit="1890">
      <temporaryLimit name="IT20" acceptableDuration="1200" value="2171"/>
      <temporaryLimit name="IT10" acceptableDuration="600" value="2345"/>
      <temporaryLimit name="IT1" acceptableDuration="60"/>
    </currentLimits2>
  </line>
  <line id="ACHILL62PARIS_ACLS" name="ACHILL62PRIAM" r="4.559999942779541" x="33.779998779296875" g1="0" b1="0.0001177340091089718" g2="0" b2="0.00011775099847000092" voltageLevelId1="PARIS" bus1="PARISP61" connectableBus1="PARISP61" voltageLevelId2="ACHILP6_S_VL6" bus2="ACHILP6_S_VL6_TN2" connectableBus2="ACHILP6_S_VL6_TN2">
    <currentLimits1 permanentLimit="1890"/>
    <currentLimits2 permanentLimit="1890">
      <temporaryLimit name="IT20" acceptableDuration="1200" value="2171"/>
      <temporaryLimit name="IT10" acceptableDuration="600" value="2345"/>
      <temporaryLimit name="IT1" acceptableDuration="60"/>
    </currentLimits2>
  </line>
  <line id="ACHILL61PRIAM_ACLS" name="ACHILL61PRIAM" r="4.559999942779541" x="33.779998779296875" g1="0" b1="0.0001177340091089718" g2="0" b2="0.00011775099847000092" voltageLevelId1="PRIAMP6_S_VL6" bus1="PRIAMP6_S_VL6_TN1" connectableBus1="PRIAMP6_S_VL6_TN1" voltageLevelId2="ACHILP6_S_VL6" bus2="ACHILP6_S_VL6_TN1" connectableBus2="ACHILP6_S_VL6_TN1">
    <currentLimits1 permanentLimit="1890"/>
    <currentLimits2 permanentLimit="1890">
      <temporaryLimit name="IT20" acceptableDuration="1200" value="2171"/>
      <temporaryLimit name="IT10" acceptableDuration="600" value="2345"/>
      <temporaryLimit name="IT1" acceptableDuration="60"/>
    </currentLimits2>
  </line>
  <line id="ACHILL62PRIAM_ACLS" name="ACHILL62PRIAM" r="4.559999942779541" x="33.779998779296875" g1="0" b1="0.0001177340091089718" g2="0" b2="0.00011775099847000092" voltageLevelId1="PRIAMP6_S_VL6" bus1="PRIAMP6_S_VL6_TN2" connectableBus1="PRIAMP6_S_VL6_TN2" voltageLevelId2="ACHILP6_S_VL6" bus2="ACHILP6_S_VL6_TN2" connectableBus2="ACHILP6_S_VL6_TN2">
    <currentLimits1 permanentLimit="1890"/>
    <currentLimits2 permanentLimit="1890">
      <temporaryLimit name="IT20" acceptableDuration="1200" value="2171"/>
      <temporaryLimit name="IT10" acceptableDuration="600" value="2345"/>
      <temporaryLimit name="IT1" acceptableDuration="60"/>
    </currentLimits2>
  </line>
  <line id="AGAMEL61PRIAM_ACLS" name="AGAMEL61PRIAM" r="4.559999942779541" x="33.779998779296875" g1="0" b1="0.0001177340091089718" g2="0" b2="0.00011775099847000092" voltageLevelId1="PRIAMP6_S_VL6" bus1="PRIAMP6_S_VL6_TN1" connectableBus1="PRIAMP6_S_VL6_TN1" voltageLevelId2="AGAMEP6_S_VL6" bus2="AGAMEP6_S_VL6_TN1" connectableBus2="AGAMEP6_S_VL6_TN1">
    <currentLimits1 permanentLimit="1890"/>
    <currentLimits2 permanentLimit="1890">
      <temporaryLimit name="IT20" acceptableDuration="1200" value="2171"/>
      <temporaryLimit name="IT10" acceptableDuration="600" value="2345"/>
      <temporaryLimit name="IT1" acceptableDuration="60"/>
    </currentLimits2>
  </line>
  <line id="AGAMEL62PRIAM_ACLS" name="AGAMEL62PRIAM" r="4.559999942779541" x="33.779998779296875" g1="0" b1="0.0001177340091089718" g2="0" b2="0.00011775099847000092" voltageLevelId1="PRIAMP6_S_VL6" bus1="PRIAMP6_S_VL6_TN2" connectableBus1="PRIAMP6_S_VL6_TN2" voltageLevelId2="AGAMEP6_S_VL6" bus2="AGAMEP6_S_VL6_TN2" connectableBus2="AGAMEP6_S_VL6_TN2">
    <currentLimits1 permanentLimit="1890"/>
    <currentLimits2 permanentLimit="1890">
      <temporaryLimit name="IT20" acceptableDuration="1200" value="2171"/>
      <temporaryLimit name="IT10" acceptableDuration="600" value="2345"/>
      <temporaryLimit name="IT1" acceptableDuration="60"/>
    </currentLimits2>
  </line>
  <line id="AGAMEL61ULYSS_ACLS" name="AGAMEL61ULYSS" r="4.559999942779541" x="33.779998779296875" g1="0" b1="0.0001177340091089718" g2="0" b2="0.00011775099847000092" voltageLevelId1="ULYSSP6_S_VL6" bus1="ULYSSP6_S_VL6_TN1" connectableBus1="ULYSSP6_S_VL6_TN1" voltageLevelId2="AGAMEP6_S_VL6" bus2="AGAMEP6_S_VL6_TN1" connectableBus2="AGAMEP6_S_VL6_TN1">
    <currentLimits1 permanentLimit="1890"/>
    <currentLimits2 permanentLimit="1890">
      <temporaryLimit name="IT20" acceptableDuration="1200" value="2171"/>
      <temporaryLimit name="IT10" acceptableDuration="600" value="2345"/>
      <temporaryLimit name="IT1" acceptableDuration="60"/>
    </currentLimits2>
  </line>
  <line id="AGAMEL62ULYSS_ACLS" name="AGAMEL62ULYSS" r="4.559999942779541" x="33.779998779296875" g1="0" b1="0.0001177340091089718" g2="0" b2="0.00011775099847000092" voltageLevelId1="ULYSSP6_S_VL6" bus1="ULYSSP6_S_VL6_TN2" connectableBus1="ULYSSP6_S_VL6_TN2" voltageLevelId2="AGAMEP6_S_VL6" bus2="AGAMEP6_S_VL6_TN2" connectableBus2="AGAMEP6_S_VL6_TN2">
    <currentLimits1 permanentLimit="1890"/>
    <currentLimits2 permanentLimit="1890">
      <temporaryLimit name="IT20" acceptableDuration="1200" value="2171"/>
      <temporaryLimit name="IT10" acceptableDuration="600" value="2345"/>
      <temporaryLimit name="IT1" acceptableDuration="60"/>
    </currentLimits2>
  </line>
  <line id="DOLONL61ULYSS_ACLS" name="DOLONL61ULYSS" r="4.559999942779541" x="33.779998779296875" g1="0" b1="0.0001177340091089718" g2="0" b2="0.00011775099847000092" voltageLevelId1="ULYSSP6_S_VL6" bus1="ULYSSP6_S_VL6_TN1" connectableBus1="ULYSSP6_S_VL6_TN1" voltageLevelId2="DOLONP6_S_VL6" bus2="DOLONP6_S_VL6_TN1" connectableBus2="DOLONP6_S_VL6_TN1">
    <currentLimits1 permanentLimit="1890"/>
    <currentLimits2 permanentLimit="1890">
      <temporaryLimit name="IT20" acceptableDuration="1200" value="2171"/>
      <temporaryLimit name="IT10" acceptableDuration="600" value="2345"/>
      <temporaryLimit name="IT1" acceptableDuration="60"/>
    </currentLimits2>
  </line>
  <line id="DOLONL62ULYSS_ACLS" name="DOLONL62ULYSS" r="4.559999942779541" x="33.779998779296875" g1="0" b1="0.0001177340091089718" g2="0" b2="0.00011775099847000092" voltageLevelId1="ULYSSP6_S_VL6" bus1="ULYSSP6_S_VL6_TN2" connectableBus1="ULYSSP6_S_VL6_TN2" voltageLevelId2="DOLONP6_S_VL6" bus2="DOLONP6_S_VL6_TN2" connectableBus2="DOLONP6_S_VL6_TN2">
    <currentLimits1 permanentLimit="1890"/>
    <currentLimits2 permanentLimit="1890">
      <temporaryLimit name="IT20" acceptableDuration="1200" value="2171"/>
      <temporaryLimit name="IT10" acceptableDuration="600" value="2345"/>
      <temporaryLimit name="IT1" acceptableDuration="60"/>
    </currentLimits2>
  </line>
  <line id="ATHENL61ULYSS_ACLS" name="ATHENL61ULYSS" r="4.559999942779541" x="33.779998779296875" g1="0" b1="0.0001177340091089718" g2="0" b2="0.00011775099847000092" voltageLevelId1="ULYSSP6_S_VL6" bus1="ULYSSP6_S_VL6_TN1" connectableBus1="ULYSSP6_S_VL6_TN1" voltageLevelId2="ATHENP6_S_VL6" bus2="ATHENP6_S_VL6_TN1" connectableBus2="ATHENP6_S_VL6_TN1">
    <currentLimits1 permanentLimit="1890"/>
    <currentLimits2 permanentLimit="1890">
      <temporaryLimit name="IT20" acceptableDuration="1200" value="2171"/>
      <temporaryLimit name="IT10" acceptableDuration="600" value="2345"/>
      <temporaryLimit name="IT1" acceptableDuration="60"/>
    </currentLimits2>
  </line>
  <line id="ATHENL62ULYSS_ACLS" name="ATHENL62ULYSS" r="4.559999942779541" x="33.779998779296875" g1="0" b1="0.0001177340091089718" g2="0" b2="0.00011775099847000092" voltageLevelId1="ULYSSP6_S_VL6" bus1="ULYSSP6_S_VL6_TN2" connectableBus1="ULYSSP6_S_VL6_TN2" voltageLevelId2="ATHENP6_S_VL6" bus2="ATHENP6_S_VL6_TN1" connectableBus2="ATHENP6_S_VL6_TN1">
    <currentLimits1 permanentLimit="1890"/>
    <currentLimits2 permanentLimit="1890">
      <temporaryLimit name="IT20" acceptableDuration="1200" value="2171"/>
      <temporaryLimit name="IT10" acceptableDuration="600" value="2345"/>
      <temporaryLimit name="IT1" acceptableDuration="60"/>
    </currentLimits2>
  </line>
  <line id="MYDONL61NIREE_ACLS" name="MYDONL61NIREE" r="4.559999942779541" x="33.779998779296875" g1="0" b1="0.0001177340091089718" g2="0" b2="0.00011775099847000092" voltageLevelId1="NIREE6" bus1="NIREEP61" connectableBus1="NIREEP61" voltageLevelId2="MYDONP6_S_VL6" bus2="MYDONP6_S_VL6_TN1" connectableBus2="MYDONP6_S_VL6_TN1">
    <currentLimits1 permanentLimit="1890"/>
    <currentLimits2 permanentLimit="1890">
      <temporaryLimit name="IT20" acceptableDuration="1200" value="2171"/>
      <temporaryLimit name="IT10" acceptableDuration="600" value="2345"/>
      <temporaryLimit name="IT1" acceptableDuration="60"/>
    </currentLimits2>
  </line>
  <line id="MYDONL62NIREE_ACLS" name="MYDONL62NIREE" r="4.559999942779541" x="33.779998779296875" g1="0" b1="0.0001177340091089718" g2="0" b2="0.00011775099847000092" voltageLevelId1="NIREE6" bus1="NIREEP61" connectableBus1="NIREEP61" voltageLevelId2="MYDONP6_S_VL6" bus2="MYDONP6_S_VL6_TN2" connectableBus2="MYDONP6_S_VL6_TN2">
    <currentLimits1 permanentLimit="1890"/>
    <currentLimits2 permanentLimit="1890">
      <temporaryLimit name="IT20" acceptableDuration="1200" value="2171"/>
      <temporaryLimit name="IT10" acceptableDuration="600" value="2345"/>
      <temporaryLimit name="IT1" acceptableDuration="60"/>
    </currentLimits2>
  </line>
  <line id="ULYSSL61NIREE_ACLS" name="ULYSSL61NIREE" r="4.559999942779541" x="33.779998779296875" g1="0" b1="0.0001177340091089718" g2="0" b2="0.00011775099847000092" voltageLevelId1="NIREE6" bus1="NIREEP61" connectableBus1="NIREEP61" voltageLevelId2="ULYSSP6_S_VL6" bus2="ULYSSP6_S_VL6_TN1" connectableBus2="ULYSSP6_S_VL6_TN1">
    <currentLimits1 permanentLimit="1890"/>
    <currentLimits2 permanentLimit="1890">
      <temporaryLimit name="IT20" acceptableDuration="1200" value="2171"/>
      <temporaryLimit name="IT10" acceptableDuration="600" value="2345"/>
      <temporaryLimit name="IT1" acceptableDuration="60"/>
    </currentLimits2>
  </line>
  <line id="ULYSSL62NIREE_ACLS" name="ULYSSL62NIREE" r="4.559999942779541" x="33.779998779296875" g1="0" b1="0.0001177340091089718" g2="0" b2="0.00011775099847000092" voltageLevelId1="NIREE6" bus1="NIREEP61" connectableBus1="NIREEP61" voltageLevelId2="ULYSSP6_S_VL6" bus2="ULYSSP6_S_VL6_TN2" connectableBus2="ULYSSP6_S_VL6_TN2">
    <currentLimits1 permanentLimit="1890"/>
    <currentLimits2 permanentLimit="1890">
      <temporaryLimit name="IT20" acceptableDuration="1200" value="2171"/>
      <temporaryLimit name="IT10" acceptableDuration="600" value="2345"/>
      <temporaryLimit name="IT1" acceptableDuration="60"/>
    </currentLimits2>
  </line>
  <line id="ATHENL71HADES_ACLS" r="1.9429999589920044" x="25.186002731323242" g1="0" b1="0.00011981700663454831" g2="0" b2="0.00011981700663454831" voltageLevelId1="HADESP7_S_VL7" bus1="HADESP7_S_VL7_TN1" connectableBus1="HADESP7_S_VL7_TN1" voltageLevelId2="ATHENP7_S_VL7" bus2="ATHENP7_S_VL7_TN1" connectableBus2="ATHENP7_S_VL7_TN1">
    <currentLimits1 permanentLimit="2822"/>
    <currentLimits2 permanentLimit="2822">
      <temporaryLimit name="IT20" acceptableDuration="1200" value="3682"/>
      <temporaryLimit name="IT10" acceptableDuration="600" value="4258.00048828125"/>
      <temporaryLimit name="IT1" acceptableDuration="60"/>
    </currentLimits2>
  </line>
  <line id="ATHENL72HADES_ACLS" r="1.9429999589920044" x="25.186002731323242" g1="0" b1="0.00011981700663454831" g2="0" b2="0.00011981700663454831" voltageLevelId1="HADESP7_S_VL7" bus1="HADESP7_S_VL7_TN1" connectableBus1="HADESP7_S_VL7_TN1" voltageLevelId2="ATHENP7_S_VL7" bus2="ATHENP7_S_VL7_TN1" connectableBus2="ATHENP7_S_VL7_TN1">
    <currentLimits1 permanentLimit="2822"/>
    <currentLimits2 permanentLimit="2822">
      <temporaryLimit name="IT20" acceptableDuration="1200" value="3682"/>
      <temporaryLimit name="IT10" acceptableDuration="600" value="4258.00048828125"/>
      <temporaryLimit name="IT1" acceptableDuration="60"/>
    </currentLimits2>
  </line>
  <line id="ATHENL61AGAME_ACLS" name="ATHENL61AGAME" r="4.559999942779541" x="33.779998779296875" g1="0" b1="0.0001177340091089718" g2="0" b2="0.00011775099847000092" voltageLevelId1="AGAMEP6_S_VL6" bus1="AGAMEP6_S_VL6_TN1" connectableBus1="AGAMEP6_S_VL6_TN1" voltageLevelId2="ATHENP6_S_VL6" bus2="ATHENP6_S_VL6_TN1" connectableBus2="ATHENP6_S_VL6_TN1">
    <currentLimits1 permanentLimit="1890"/>
    <currentLimits2 permanentLimit="1890">
      <temporaryLimit name="IT20" acceptableDuration="1200" value="2171"/>
      <temporaryLimit name="IT10" acceptableDuration="600" value="2345"/>
      <temporaryLimit name="IT1" acceptableDuration="60"/>
    </currentLimits2>
  </line>
  <line id="ATHENL62AGAME_ACLS" name="ATHENL62AGAME" r="4.559999942779541" x="33.779998779296875" g1="0" b1="0.0001177340091089718" g2="0" b2="0.00011775099847000092" voltageLevelId1="AGAMEP6_S_VL6" bus1="AGAMEP6_S_VL6_TN2" connectableBus1="AGAMEP6_S_VL6_TN2" voltageLevelId2="ATHENP6_S_VL6" bus2="ATHENP6_S_VL6_TN1" connectableBus2="ATHENP6_S_VL6_TN1">
    <currentLimits1 permanentLimit="1890"/>
    <currentLimits2 permanentLimit="1890">
      <temporaryLimit name="IT20" acceptableDuration="1200" value="2171"/>
      <temporaryLimit name="IT10" acceptableDuration="600" value="2345"/>
      <temporaryLimit name="IT1" acceptableDuration="60"/>
    </currentLimits2>
  </line>
  <line id="HADESL61HELEN_ACLS" name="HADESL61HELEN" r="4.559999942779541" x="33.779998779296875" g1="0" b1="0.0001177340091089718" g2="0" b2="0.00011775099847000092" voltageLevelId1="HELENP6_S_VL6" bus1="HELENP6_S_VL6_TN1" connectableBus1="HELENP6_S_VL6_TN1" voltageLevelId2="HADESP6_S_VL6" bus2="HADESP6_S_VL6_TN1" connectableBus2="HADESP6_S_VL6_TN1">
    <currentLimits1 permanentLimit="1890"/>
    <currentLimits2 permanentLimit="1890">
      <temporaryLimit name="IT20" acceptableDuration="1200" value="2171"/>
      <temporaryLimit name="IT10" acceptableDuration="600" value="2345"/>
      <temporaryLimit name="IT1" acceptableDuration="60"/>
    </currentLimits2>
  </line>
  <line id="HADESL62HELEN_ACLS" name="HADESL62HELEN" r="4.559999942779541" x="33.779998779296875" g1="0" b1="0.0001177340091089718" g2="0" b2="0.00011775099847000092" voltageLevelId1="HELENP6_S_VL6" bus1="HELENP6_S_VL6_TN1" connectableBus1="HELENP6_S_VL6_TN1" voltageLevelId2="HADESP6_S_VL6" bus2="HADESP6_S_VL6_TN1" connectableBus2="HADESP6_S_VL6_TN1">
    <currentLimits1 permanentLimit="1890"/>
    <currentLimits2 permanentLimit="1890">
      <temporaryLimit name="IT20" acceptableDuration="1200" value="2171"/>
      <temporaryLimit name="IT10" acceptableDuration="600" value="2345"/>
      <temporaryLimit name="IT1" acceptableDuration="60"/>
    </currentLimits2>
  </line>
  <line id="DOLONL61PRIAM_ACLS" name="DOLONL61PRIAM" r="4.559999942779541" x="33.779998779296875" g1="0" b1="0.0001177340091089718" g2="0" b2="0.00011775099847000092" voltageLevelId1="PRIAMP6_S_VL6" bus1="PRIAMP6_S_VL6_TN1" connectableBus1="PRIAMP6_S_VL6_TN1" voltageLevelId2="DOLONP6_S_VL6" bus2="DOLONP6_S_VL6_TN1" connectableBus2="DOLONP6_S_VL6_TN1">
    <currentLimits1 permanentLimit="1890"/>
    <currentLimits2 permanentLimit="1890">
      <temporaryLimit name="IT20" acceptableDuration="1200" value="2171"/>
      <temporaryLimit name="IT10" acceptableDuration="600" value="2345"/>
      <temporaryLimit name="IT1" acceptableDuration="60"/>
    </currentLimits2>
  </line>
  <line id="DOLONL62PRIAM_ACLS" name="DOLONL62PRIAM" r="4.559999942779541" x="33.779998779296875" g1="0" b1="0.0001177340091089718" g2="0" b2="0.00011775099847000092" voltageLevelId1="PRIAMP6_S_VL6" bus1="PRIAMP6_S_VL6_TN1" connectableBus1="PRIAMP6_S_VL6_TN1" voltageLevelId2="DOLONP6_S_VL6" bus2="DOLONP6_S_VL6_TN1" connectableBus2="DOLONP6_S_VL6_TN1">
    <currentLimits1 permanentLimit="1890"/>
    <currentLimits2 permanentLimit="1890">
      <temporaryLimit name="IT20" acceptableDuration="1200" value="2171"/>
      <temporaryLimit name="IT10" acceptableDuration="600" value="2345"/>
      <temporaryLimit name="IT1" acceptableDuration="60"/>
    </currentLimits2>
  </line>
  <line id="MYDONL61CIRCE_ACLS" name="MYDONL61CIRCE" r="4.559999942779541" x="33.779998779296875" g1="0" b1="0.0001177340091089718" g2="0" b2="0.00011775099847000092" voltageLevelId1="CIRCEP6_S_VL6" bus1="CIRCEP6_S_VL6_TN1" connectableBus1="CIRCEP6_S_VL6_TN1" voltageLevelId2="MYDONP6_S_VL6" bus2="MYDONP6_S_VL6_TN1" connectableBus2="MYDONP6_S_VL6_TN1">
    <currentLimits1 permanentLimit="1890"/>
    <currentLimits2 permanentLimit="1890">
      <temporaryLimit name="IT20" acceptableDuration="1200" value="2171"/>
      <temporaryLimit name="IT10" acceptableDuration="600" value="2345"/>
      <temporaryLimit name="IT1" acceptableDuration="60"/>
    </currentLimits2>
  </line>
  <line id="MYDONL62CIRCE_ACLS" name="MYDONL62CIRCE" r="4.559999942779541" x="33.779998779296875" g1="0" b1="0.0001177340091089718" g2="0" b2="0.00011775099847000092" voltageLevelId1="CIRCEP6_S_VL6" bus1="CIRCEP6_S_VL6_TN1" connectableBus1="CIRCEP6_S_VL6_TN1" voltageLevelId2="MYDONP6_S_VL6" bus2="MYDONP6_S_VL6_TN1" connectableBus2="MYDONP6_S_VL6_TN1">
    <currentLimits1 permanentLimit="1890"/>
    <currentLimits2 permanentLimit="1890">
      <temporaryLimit name="IT20" acceptableDuration="1200" value="2171"/>
      <temporaryLimit name="IT10" acceptableDuration="600" value="2345"/>
      <temporaryLimit name="IT1" acceptableDuration="60"/>
    </currentLimits2>
  </line>
  <hvdcLine id="HERA9AJAX1" r="0.125" nominalV="320" convertersMode="SIDE_1_INVERTER_SIDE_2_RECTIFIER" activePowerSetpoint="800" maxP="1011" converterStation1="HERAP7_HERA_TER_1" converterStation2="AJAXP7_AJAX_TER_1"/>
  <hvdcLine id="HERA9AJAX1bis" r="0.125" nominalV="320" convertersMode="SIDE_1_INVERTER_SIDE_2_RECTIFIER" activePowerSetpoint="800" maxP="1011" converterStation1="HERAP7_HERA_TER_2" converterStation2="AJAXP7_AJAX_TER_2"/>
</network>
